<configuration>
    <input>
        <net-file value="network.net.xml"/>
        <route-files value="network.rou.xml"/>
        <additional-files value="network.add.xml"/>
        <gui-settings-file value="network.settings.xml"/>
    </input>
    <time>
	<begin value="0"/>
	<end value="2000"/>
</time>
</configuration>